pandapower/test/converter/testfiles/test_ucte_res_line.csv
name;p_from_mw;q_from_mvar
Line1_DE;763.6;3239.1
Line2_DE;381.8;1619.5
line1_AL;-1.1;-1.1
line1_DK;-1.2;-1.1
line1_ES;-12.3;189.7
line1_FR;491.3;122.9
line1_HR;0.2;-8.4
line1_HU;1.7;-4.9
line1_IT;0.7;-5.0
line1_LU;1.2;23.0
line1_NL;5.2;-10.6
line1_RS;0.4;-6.0
line1_SL;-2.1;-0.1
line2_DK;0.0;0.0
line2_FR;492.5;121.9
line2_HR;0.1;-7.3
line2_LU;1.0;23.5
line2_NL;10.0;-19.7
line3_DK;0.0;0.0
line3_LU;0.7;-11.1
line4_LU;0.7;-4.9
